2
Coordinates from ORCA-job molecule E -129.816189356939
  N       0.421218      0.000000      0.000000
  O       1.578782      0.000000      0.000000
2
Coordinates from ORCA-job molecule E -129.816189357083
  N       0.421218      0.000000      0.000000
  O       1.578782      0.000000      0.000000
