2
Coordinates from ORCA-job molecule E -113.234775530629
  C       0.431753      0.000000      0.000000
  O       1.568247      0.000000      0.000000
2
Coordinates from ORCA-job molecule E -113.234775530875
  C       0.431753      0.000000      0.000000
  O       1.568247      0.000000      0.000000
